<?xml version="1.0" encoding="UTF-8"?>

<vehicleDefinitions xmlns="http://www.matsim.org/files/dtd"
 xmlns:xsi="http://www.w3.org/2001/XMLSchema-instance"
 xsi:schemaLocation="http://www.matsim.org/files/dtd http://www.matsim.org/files/dtd/vehicleDefinitions_v1.0.xsd">
	<vehicleType id="car_average">
		<description>
			BEGIN_EMISSIONSPASSENGER_CAR;average;average;averageEND_EMISSIONS
		</description>
		<length meter="7.5"/>
		<width meter="1.0"/>

		<accessTime secondsPerPerson="1.0"/>
		<egressTime secondsPerPerson="1.0"/>
		<doorOperation mode="serial"/>
	</vehicleType>
	<vehicleType id="car_petrol">
		<description>
			BEGIN_EMISSIONSPASSENGER_CAR;petrol (4S);&gt;=2L;PC-P-Euro-1END_EMISSIONS
		</description>
		<length meter="7.5"/>
		<width meter="1.0"/>

		<accessTime secondsPerPerson="1.0"/>
		<egressTime secondsPerPerson="1.0"/>
		<doorOperation mode="serial"/>
	</vehicleType>
	<vehicleType id="car_diesel">
		<description>
			BEGIN_EMISSIONSPASSENGER_CAR;diesel;&lt;1,4L;PC-D-Euro-3END_EMISSIONS
		</description>
		<length meter="7.5"/>
		<width meter="1.0"/>

		<accessTime secondsPerPerson="1.0"/>
		<egressTime secondsPerPerson="1.0"/>
		<doorOperation mode="serial"/>
	</vehicleType>
	<vehicleType id="bicycle">
		<description>
			BEGIN_EMISSIONSZERO_EMISSION_VEHICLE;average;average;averageEND_EMISSIONS
		</description>
		<length meter="2.0"/>
		<width meter="1.0"/>

		<accessTime secondsPerPerson="1.0"/>
		<egressTime secondsPerPerson="1.0"/>
		<doorOperation mode="serial"/>
	</vehicleType>

       <vehicle id="0" type="bicycle"/>
       <vehicle id="1" type="car_diesel"/>
       <vehicle id="2" type="car_petrol"/>
       <vehicle id="3" type="car_petrol"/>
       <vehicle id="4" type="car_average"/>
       <vehicle id="5" type="bicycle"/>
       <vehicle id="6" type="car_petrol"/>
       <vehicle id="7" type="bicycle"/>
       <vehicle id="8" type="bicycle"/>
       <vehicle id="9" type="bicycle"/>
       <vehicle id="10" type="car_petrol"/>
       <vehicle id="11" type="car_diesel"/>
       <vehicle id="12" type="car_average"/>
       <vehicle id="13" type="bicycle"/>
       <vehicle id="14" type="bicycle"/>
       <vehicle id="15" type="bicycle"/>
       <vehicle id="16" type="bicycle"/>
       <vehicle id="17" type="car_petrol"/>
       <vehicle id="18" type="car_average"/>
       <vehicle id="19" type="bicycle"/>
       <vehicle id="20" type="car_petrol"/>
       <vehicle id="21" type="bicycle"/>
       <vehicle id="22" type="car_petrol"/>
       <vehicle id="23" type="bicycle"/>
       <vehicle id="24" type="bicycle"/>
       <vehicle id="25" type="bicycle"/>
       <vehicle id="26" type="car_average"/>
       <vehicle id="27" type="car_petrol"/>
       <vehicle id="28" type="bicycle"/>
       <vehicle id="29" type="car_petrol"/>
       <vehicle id="30" type="bicycle"/>
       <vehicle id="31" type="bicycle"/>
       <vehicle id="32" type="car_diesel"/>
       <vehicle id="33" type="bicycle"/>
       <vehicle id="34" type="bicycle"/>
       <vehicle id="35" type="bicycle"/>
       <vehicle id="36" type="car_diesel"/>
       <vehicle id="37" type="bicycle"/>
       <vehicle id="38" type="car_diesel"/>
       <vehicle id="39" type="bicycle"/>
       <vehicle id="40" type="bicycle"/>
       <vehicle id="41" type="car_average"/>
       <vehicle id="42" type="car_diesel"/>
       <vehicle id="43" type="bicycle"/>
       <vehicle id="44" type="bicycle"/>
       <vehicle id="45" type="car_petrol"/>
       <vehicle id="46" type="bicycle"/>
       <vehicle id="47" type="car_diesel"/>
       <vehicle id="48" type="bicycle"/>
       <vehicle id="49" type="car_average"/>
       <vehicle id="50" type="bicycle"/>
       <vehicle id="51" type="car_petrol"/>
       <vehicle id="52" type="bicycle"/>
       <vehicle id="53" type="car_diesel"/>
       <vehicle id="54" type="car_petrol"/>
       <vehicle id="55" type="car_petrol"/>
       <vehicle id="56" type="car_diesel"/>
       <vehicle id="57" type="car_petrol"/>
       <vehicle id="58" type="bicycle"/>
       <vehicle id="59" type="car_diesel"/>
       <vehicle id="60" type="bicycle"/>
       <vehicle id="61" type="bicycle"/>
       <vehicle id="62" type="car_average"/>
       <vehicle id="63" type="bicycle"/>
       <vehicle id="64" type="bicycle"/>
       <vehicle id="65" type="car_average"/>
       <vehicle id="66" type="car_average"/>
       <vehicle id="67" type="bicycle"/>
       <vehicle id="68" type="bicycle"/>
       <vehicle id="69" type="bicycle"/>
       <vehicle id="70" type="car_diesel"/>
       <vehicle id="71" type="car_diesel"/>
       <vehicle id="72" type="car_petrol"/>
       <vehicle id="73" type="car_diesel"/>
       <vehicle id="74" type="bicycle"/>
       <vehicle id="75" type="car_petrol"/>
       <vehicle id="76" type="bicycle"/>
       <vehicle id="77" type="car_petrol"/>
       <vehicle id="78" type="car_diesel"/>
       <vehicle id="79" type="car_average"/>
       <vehicle id="80" type="car_diesel"/>
       <vehicle id="81" type="bicycle"/>
       <vehicle id="82" type="car_average"/>
       <vehicle id="83" type="bicycle"/>
       <vehicle id="84" type="bicycle"/>
       <vehicle id="85" type="bicycle"/>
       <vehicle id="86" type="car_petrol"/>
       <vehicle id="87" type="bicycle"/>
       <vehicle id="88" type="bicycle"/>
       <vehicle id="89" type="car_average"/>
       <vehicle id="90" type="car_average"/>
       <vehicle id="91" type="car_diesel"/>
       <vehicle id="92" type="car_average"/>
       <vehicle id="93" type="car_average"/>
       <vehicle id="94" type="car_average"/>
       <vehicle id="95" type="bicycle"/>
       <vehicle id="96" type="bicycle"/>
       <vehicle id="97" type="car_diesel"/>
       <vehicle id="98" type="bicycle"/>
       <vehicle id="99" type="bicycle"/>
       <vehicle id="100" type="bicycle"/>
       <vehicle id="101" type="bicycle"/>
       <vehicle id="102" type="bicycle"/>
       <vehicle id="103" type="car_petrol"/>
       <vehicle id="104" type="car_diesel"/>
       <vehicle id="105" type="car_diesel"/>
       <vehicle id="106" type="bicycle"/>
       <vehicle id="107" type="car_petrol"/>
       <vehicle id="108" type="car_average"/>
       <vehicle id="109" type="car_petrol"/>
       <vehicle id="110" type="bicycle"/>
       <vehicle id="111" type="bicycle"/>
       <vehicle id="112" type="bicycle"/>
       <vehicle id="113" type="bicycle"/>
       <vehicle id="114" type="bicycle"/>
       <vehicle id="115" type="car_petrol"/>
       <vehicle id="116" type="bicycle"/>
       <vehicle id="117" type="bicycle"/>
       <vehicle id="118" type="car_petrol"/>
       <vehicle id="119" type="car_petrol"/>
       <vehicle id="120" type="car_average"/>
       <vehicle id="121" type="bicycle"/>
       <vehicle id="122" type="bicycle"/>
       <vehicle id="123" type="bicycle"/>
       <vehicle id="124" type="bicycle"/>
       <vehicle id="125" type="bicycle"/>
       <vehicle id="126" type="bicycle"/>
       <vehicle id="127" type="bicycle"/>
       <vehicle id="128" type="bicycle"/>
       <vehicle id="129" type="car_petrol"/>
       <vehicle id="130" type="car_diesel"/>
       <vehicle id="131" type="car_average"/>
       <vehicle id="132" type="car_average"/>
       <vehicle id="133" type="car_petrol"/>
       <vehicle id="134" type="car_petrol"/>
       <vehicle id="135" type="bicycle"/>
       <vehicle id="136" type="car_average"/>
       <vehicle id="137" type="bicycle"/>
       <vehicle id="138" type="bicycle"/>
       <vehicle id="139" type="bicycle"/>
       <vehicle id="140" type="car_diesel"/>
       <vehicle id="141" type="car_petrol"/>
       <vehicle id="142" type="bicycle"/>
       <vehicle id="143" type="bicycle"/>
       <vehicle id="144" type="car_petrol"/>
       <vehicle id="145" type="car_average"/>
       <vehicle id="146" type="bicycle"/>
       <vehicle id="147" type="bicycle"/>
       <vehicle id="148" type="car_average"/>
       <vehicle id="149" type="car_petrol"/>
       <vehicle id="150" type="car_average"/>
       <vehicle id="151" type="car_average"/>
       <vehicle id="152" type="bicycle"/>
       <vehicle id="153" type="bicycle"/>
       <vehicle id="154" type="car_diesel"/>
       <vehicle id="155" type="car_diesel"/>
       <vehicle id="156" type="car_diesel"/>
       <vehicle id="157" type="car_average"/>
       <vehicle id="158" type="bicycle"/>
       <vehicle id="159" type="bicycle"/>
       <vehicle id="160" type="bicycle"/>
       <vehicle id="161" type="bicycle"/>
       <vehicle id="162" type="bicycle"/>
       <vehicle id="163" type="car_petrol"/>
       <vehicle id="164" type="bicycle"/>
       <vehicle id="165" type="car_average"/>
       <vehicle id="166" type="car_petrol"/>
       <vehicle id="167" type="car_average"/>
       <vehicle id="168" type="bicycle"/>
       <vehicle id="169" type="bicycle"/>
       <vehicle id="170" type="car_diesel"/>
       <vehicle id="171" type="bicycle"/>
       <vehicle id="172" type="bicycle"/>
       <vehicle id="173" type="car_diesel"/>
       <vehicle id="174" type="car_petrol"/>
       <vehicle id="175" type="bicycle"/>
       <vehicle id="176" type="car_diesel"/>
       <vehicle id="177" type="car_average"/>
       <vehicle id="178" type="car_diesel"/>
       <vehicle id="179" type="car_diesel"/>
       <vehicle id="180" type="bicycle"/>
       <vehicle id="181" type="car_average"/>
       <vehicle id="182" type="car_average"/>
       <vehicle id="183" type="car_diesel"/>
       <vehicle id="184" type="bicycle"/>
       <vehicle id="185" type="bicycle"/>
       <vehicle id="186" type="bicycle"/>
       <vehicle id="187" type="bicycle"/>
       <vehicle id="188" type="bicycle"/>
       <vehicle id="189" type="bicycle"/>
       <vehicle id="190" type="car_diesel"/>
       <vehicle id="191" type="car_diesel"/>
       <vehicle id="192" type="car_diesel"/>
       <vehicle id="193" type="car_petrol"/>
       <vehicle id="194" type="bicycle"/>
       <vehicle id="195" type="car_diesel"/>
       <vehicle id="196" type="car_petrol"/>
       <vehicle id="197" type="bicycle"/>
       <vehicle id="198" type="car_petrol"/>
       <vehicle id="199" type="bicycle"/>
       <vehicle id="200" type="bicycle"/>
       <vehicle id="201" type="bicycle"/>
       <vehicle id="202" type="car_petrol"/>
       <vehicle id="203" type="car_average"/>
       <vehicle id="204" type="car_diesel"/>
       <vehicle id="205" type="car_petrol"/>
       <vehicle id="206" type="bicycle"/>
       <vehicle id="207" type="car_average"/>
       <vehicle id="208" type="bicycle"/>
       <vehicle id="209" type="bicycle"/>
       <vehicle id="210" type="bicycle"/>
       <vehicle id="211" type="bicycle"/>
       <vehicle id="212" type="bicycle"/>
       <vehicle id="213" type="car_average"/>
       <vehicle id="214" type="bicycle"/>
       <vehicle id="215" type="car_diesel"/>
       <vehicle id="216" type="bicycle"/>
       <vehicle id="217" type="bicycle"/>
       <vehicle id="218" type="car_petrol"/>
       <vehicle id="219" type="car_petrol"/>
       <vehicle id="220" type="car_petrol"/>
       <vehicle id="221" type="bicycle"/>
       <vehicle id="222" type="bicycle"/>
       <vehicle id="223" type="bicycle"/>
       <vehicle id="224" type="bicycle"/>
       <vehicle id="225" type="car_average"/>
       <vehicle id="226" type="bicycle"/>
       <vehicle id="227" type="car_petrol"/>
       <vehicle id="228" type="car_average"/>
       <vehicle id="229" type="car_average"/>
       <vehicle id="230" type="car_average"/>
       <vehicle id="231" type="car_average"/>
       <vehicle id="232" type="bicycle"/>
       <vehicle id="233" type="bicycle"/>
       <vehicle id="234" type="car_petrol"/>
       <vehicle id="235" type="bicycle"/>
       <vehicle id="236" type="bicycle"/>
       <vehicle id="237" type="car_average"/>
       <vehicle id="238" type="bicycle"/>
       <vehicle id="239" type="bicycle"/>
       <vehicle id="240" type="bicycle"/>
       <vehicle id="241" type="bicycle"/>
       <vehicle id="242" type="bicycle"/>
       <vehicle id="243" type="car_petrol"/>
       <vehicle id="244" type="car_petrol"/>
       <vehicle id="245" type="bicycle"/>
       <vehicle id="246" type="bicycle"/>
       <vehicle id="247" type="car_petrol"/>
       <vehicle id="248" type="car_diesel"/>
       <vehicle id="249" type="bicycle"/>
       <vehicle id="250" type="car_average"/>
       <vehicle id="251" type="bicycle"/>
       <vehicle id="252" type="bicycle"/>
       <vehicle id="253" type="bicycle"/>
       <vehicle id="254" type="car_average"/>
       <vehicle id="255" type="car_average"/>
       <vehicle id="256" type="bicycle"/>
       <vehicle id="257" type="bicycle"/>
       <vehicle id="258" type="bicycle"/>
       <vehicle id="259" type="bicycle"/>
       <vehicle id="260" type="bicycle"/>
       <vehicle id="261" type="bicycle"/>
       <vehicle id="262" type="bicycle"/>
       <vehicle id="263" type="car_average"/>
       <vehicle id="264" type="bicycle"/>
       <vehicle id="265" type="car_diesel"/>
       <vehicle id="266" type="car_average"/>
       <vehicle id="267" type="car_petrol"/>
       <vehicle id="268" type="car_diesel"/>
       <vehicle id="269" type="bicycle"/>
       <vehicle id="270" type="bicycle"/>
       <vehicle id="271" type="car_petrol"/>
       <vehicle id="272" type="car_diesel"/>
       <vehicle id="273" type="car_diesel"/>
       <vehicle id="274" type="car_petrol"/>
       <vehicle id="275" type="bicycle"/>
       <vehicle id="276" type="car_average"/>
       <vehicle id="277" type="bicycle"/>
       <vehicle id="278" type="bicycle"/>
       <vehicle id="279" type="car_average"/>
       <vehicle id="280" type="bicycle"/>
       <vehicle id="281" type="car_diesel"/>
       <vehicle id="282" type="car_petrol"/>
       <vehicle id="283" type="car_average"/>
       <vehicle id="284" type="bicycle"/>
       <vehicle id="285" type="car_diesel"/>
       <vehicle id="286" type="bicycle"/>
       <vehicle id="287" type="bicycle"/>
       <vehicle id="288" type="bicycle"/>
       <vehicle id="289" type="bicycle"/>
       <vehicle id="290" type="bicycle"/>
       <vehicle id="291" type="car_diesel"/>
       <vehicle id="292" type="bicycle"/>
       <vehicle id="293" type="bicycle"/>
       <vehicle id="294" type="bicycle"/>
       <vehicle id="295" type="car_average"/>
       <vehicle id="296" type="car_diesel"/>
       <vehicle id="297" type="bicycle"/>
       <vehicle id="298" type="bicycle"/>
       <vehicle id="299" type="car_petrol"/>
       <vehicle id="300" type="bicycle"/>
       <vehicle id="301" type="car_petrol"/>
       <vehicle id="302" type="bicycle"/>
       <vehicle id="303" type="car_average"/>
       <vehicle id="304" type="bicycle"/>
       <vehicle id="305" type="car_petrol"/>
       <vehicle id="306" type="bicycle"/>
       <vehicle id="307" type="car_diesel"/>
       <vehicle id="308" type="car_petrol"/>
       <vehicle id="309" type="bicycle"/>
       <vehicle id="310" type="car_petrol"/>
       <vehicle id="311" type="car_diesel"/>
       <vehicle id="312" type="car_petrol"/>
       <vehicle id="313" type="car_petrol"/>
       <vehicle id="314" type="bicycle"/>
       <vehicle id="315" type="bicycle"/>
       <vehicle id="316" type="bicycle"/>
       <vehicle id="317" type="car_average"/>
       <vehicle id="318" type="bicycle"/>
       <vehicle id="319" type="bicycle"/>
       <vehicle id="320" type="bicycle"/>
       <vehicle id="321" type="bicycle"/>
       <vehicle id="322" type="car_diesel"/>
       <vehicle id="323" type="bicycle"/>
       <vehicle id="324" type="bicycle"/>
       <vehicle id="325" type="car_diesel"/>
       <vehicle id="326" type="bicycle"/>
       <vehicle id="327" type="bicycle"/>
       <vehicle id="328" type="car_diesel"/>
       <vehicle id="329" type="bicycle"/>
       <vehicle id="330" type="car_diesel"/>
       <vehicle id="331" type="car_average"/>
       <vehicle id="332" type="car_petrol"/>
       <vehicle id="333" type="bicycle"/>
       <vehicle id="334" type="bicycle"/>
       <vehicle id="335" type="car_diesel"/>
       <vehicle id="336" type="car_average"/>
       <vehicle id="337" type="car_petrol"/>
       <vehicle id="338" type="bicycle"/>
       <vehicle id="339" type="bicycle"/>
       <vehicle id="340" type="car_average"/>
       <vehicle id="341" type="bicycle"/>
       <vehicle id="342" type="bicycle"/>
       <vehicle id="343" type="car_diesel"/>
       <vehicle id="344" type="bicycle"/>
       <vehicle id="345" type="car_average"/>
       <vehicle id="346" type="bicycle"/>
       <vehicle id="347" type="bicycle"/>
       <vehicle id="348" type="car_petrol"/>
       <vehicle id="349" type="bicycle"/>
       <vehicle id="350" type="bicycle"/>
       <vehicle id="351" type="car_average"/>
       <vehicle id="352" type="bicycle"/>
       <vehicle id="353" type="car_petrol"/>
       <vehicle id="354" type="car_average"/>
       <vehicle id="355" type="bicycle"/>
       <vehicle id="356" type="car_average"/>
       <vehicle id="357" type="bicycle"/>
       <vehicle id="358" type="bicycle"/>
       <vehicle id="359" type="bicycle"/>
       <vehicle id="360" type="car_average"/>
       <vehicle id="361" type="bicycle"/>
       <vehicle id="362" type="bicycle"/>
       <vehicle id="363" type="bicycle"/>
       <vehicle id="364" type="car_petrol"/>
       <vehicle id="365" type="car_diesel"/>
       <vehicle id="366" type="bicycle"/>
       <vehicle id="367" type="car_average"/>
       <vehicle id="368" type="car_petrol"/>
       <vehicle id="369" type="bicycle"/>
       <vehicle id="370" type="car_petrol"/>
       <vehicle id="371" type="bicycle"/>
       <vehicle id="372" type="car_diesel"/>
       <vehicle id="373" type="bicycle"/>
       <vehicle id="374" type="bicycle"/>
       <vehicle id="375" type="car_average"/>
       <vehicle id="376" type="car_diesel"/>
       <vehicle id="377" type="car_average"/>
       <vehicle id="378" type="bicycle"/>
       <vehicle id="379" type="bicycle"/>
       <vehicle id="380" type="bicycle"/>
       <vehicle id="381" type="car_diesel"/>
       <vehicle id="382" type="car_average"/>
       <vehicle id="383" type="car_petrol"/>
       <vehicle id="384" type="car_petrol"/>
       <vehicle id="385" type="car_diesel"/>
       <vehicle id="386" type="bicycle"/>
       <vehicle id="387" type="bicycle"/>
       <vehicle id="388" type="bicycle"/>
       <vehicle id="389" type="bicycle"/>
       <vehicle id="390" type="bicycle"/>
       <vehicle id="391" type="bicycle"/>
       <vehicle id="392" type="car_petrol"/>
       <vehicle id="393" type="bicycle"/>
       <vehicle id="394" type="bicycle"/>
       <vehicle id="395" type="bicycle"/>
       <vehicle id="396" type="bicycle"/>
       <vehicle id="397" type="car_diesel"/>
       <vehicle id="398" type="bicycle"/>
       <vehicle id="399" type="bicycle"/>
       <vehicle id="400" type="bicycle"/>
       <vehicle id="401" type="car_diesel"/>
       <vehicle id="402" type="bicycle"/>
       <vehicle id="403" type="bicycle"/>
       <vehicle id="404" type="bicycle"/>
       <vehicle id="405" type="car_petrol"/>
       <vehicle id="406" type="bicycle"/>
       <vehicle id="407" type="car_diesel"/>
       <vehicle id="408" type="car_diesel"/>
       <vehicle id="409" type="bicycle"/>
       <vehicle id="410" type="car_average"/>
       <vehicle id="411" type="car_petrol"/>
       <vehicle id="412" type="bicycle"/>
       <vehicle id="413" type="bicycle"/>
       <vehicle id="414" type="car_average"/>
       <vehicle id="415" type="car_average"/>
       <vehicle id="416" type="car_petrol"/>
       <vehicle id="417" type="bicycle"/>
       <vehicle id="418" type="bicycle"/>
       <vehicle id="419" type="bicycle"/>
       <vehicle id="420" type="bicycle"/>
       <vehicle id="421" type="car_petrol"/>
       <vehicle id="422" type="bicycle"/>
       <vehicle id="423" type="car_petrol"/>
       <vehicle id="424" type="car_petrol"/>
       <vehicle id="425" type="bicycle"/>
       <vehicle id="426" type="bicycle"/>
       <vehicle id="427" type="car_average"/>
       <vehicle id="428" type="bicycle"/>
       <vehicle id="429" type="car_petrol"/>
       <vehicle id="430" type="car_average"/>
       <vehicle id="431" type="bicycle"/>
       <vehicle id="432" type="bicycle"/>
       <vehicle id="433" type="car_petrol"/>
       <vehicle id="434" type="bicycle"/>
       <vehicle id="435" type="bicycle"/>
       <vehicle id="436" type="car_average"/>
       <vehicle id="437" type="bicycle"/>
       <vehicle id="438" type="bicycle"/>
       <vehicle id="439" type="car_average"/>
       <vehicle id="440" type="bicycle"/>
       <vehicle id="441" type="bicycle"/>
       <vehicle id="442" type="bicycle"/>
       <vehicle id="443" type="car_average"/>
       <vehicle id="444" type="car_average"/>
       <vehicle id="445" type="bicycle"/>
       <vehicle id="446" type="car_petrol"/>
       <vehicle id="447" type="bicycle"/>
       <vehicle id="448" type="car_petrol"/>
       <vehicle id="449" type="bicycle"/>
       <vehicle id="450" type="bicycle"/>
       <vehicle id="451" type="bicycle"/>
       <vehicle id="452" type="car_average"/>
       <vehicle id="453" type="bicycle"/>
       <vehicle id="454" type="bicycle"/>
       <vehicle id="455" type="bicycle"/>
       <vehicle id="456" type="car_diesel"/>
       <vehicle id="457" type="car_average"/>
       <vehicle id="458" type="bicycle"/>
       <vehicle id="459" type="car_diesel"/>
       <vehicle id="460" type="bicycle"/>
       <vehicle id="461" type="bicycle"/>
       <vehicle id="462" type="car_average"/>
       <vehicle id="463" type="car_petrol"/>
       <vehicle id="464" type="car_diesel"/>
       <vehicle id="465" type="car_petrol"/>
       <vehicle id="466" type="car_average"/>
       <vehicle id="467" type="car_diesel"/>
       <vehicle id="468" type="car_petrol"/>
       <vehicle id="469" type="bicycle"/>
       <vehicle id="470" type="car_diesel"/>
       <vehicle id="471" type="bicycle"/>
       <vehicle id="472" type="car_petrol"/>
       <vehicle id="473" type="bicycle"/>
       <vehicle id="474" type="car_average"/>
       <vehicle id="475" type="bicycle"/>
       <vehicle id="476" type="bicycle"/>
       <vehicle id="477" type="car_petrol"/>
       <vehicle id="478" type="bicycle"/>
       <vehicle id="479" type="bicycle"/>
       <vehicle id="480" type="car_average"/>
       <vehicle id="481" type="car_petrol"/>
       <vehicle id="482" type="bicycle"/>
       <vehicle id="483" type="car_petrol"/>
       <vehicle id="484" type="bicycle"/>
       <vehicle id="485" type="bicycle"/>
       <vehicle id="486" type="car_average"/>
       <vehicle id="487" type="bicycle"/>
       <vehicle id="488" type="car_diesel"/>
       <vehicle id="489" type="car_average"/>
       <vehicle id="490" type="car_petrol"/>
       <vehicle id="491" type="car_petrol"/>
       <vehicle id="492" type="bicycle"/>
       <vehicle id="493" type="car_diesel"/>
       <vehicle id="494" type="bicycle"/>
       <vehicle id="495" type="car_diesel"/>
       <vehicle id="496" type="car_diesel"/>
       <vehicle id="497" type="car_petrol"/>
       <vehicle id="498" type="car_diesel"/>
       <vehicle id="499" type="bicycle"/>
</vehicleDefinitions>